Revision: 48f5c697c64ec4e3af0a392a60d4faafb4270d6b
Patch-set: 1
File: runtime/check_jni.cc

161:2-164:67
Thu Aug 20 01:17:36 2015 +0000
Author: Andreas Gampe <1041833@85c56323-6fa9-3386-8a01-6480fb634889>
UUID: c471e91c_82caab14
Bytes: 88
This is a bit weird. Making the function const, just to then have to put a const_cast...

161:2-164:67
Thu Aug 20 17:07:51 2015 +0000
Author: Alex Light <1047769@85c56323-6fa9-3386-8a01-6480fb634889>
Parent: c471e91c_82caab14
UUID: c4700952_2d236d34
Bytes: 32
Added an explanation in comment.

189:10-189:16
Thu Aug 20 01:17:36 2015 +0000
Author: Andreas Gampe <1041833@85c56323-6fa9-3386-8a01-6480fb634889>
UUID: c471e91c_c298234c
Bytes: 14
UNREACHABLE();

189:10-189:16
Thu Aug 20 17:07:51 2015 +0000
Author: Alex Light <1047769@85c56323-6fa9-3386-8a01-6480fb634889>
Parent: c471e91c_c298234c
UUID: e4750d3f_ce63c390
Bytes: 4
Done

207:10-207:16
Thu Aug 20 01:17:36 2015 +0000
Author: Andreas Gampe <1041833@85c56323-6fa9-3386-8a01-6480fb634889>
UUID: e4aeed64_081ff593
Bytes: 5
Same.

207:10-207:16
Thu Aug 20 17:07:51 2015 +0000
Author: Alex Light <1047769@85c56323-6fa9-3386-8a01-6480fb634889>
Parent: e4aeed64_081ff593
UUID: e4750d3f_8e6dbb7b
Bytes: 4
Done

854:24-854:37
Thu Aug 20 01:17:36 2015 +0000
Author: Andreas Gampe <1041833@85c56323-6fa9-3386-8a01-6480fb634889>
UUID: 243ac5f6_55ce7ca7
Bytes: 16
New line please.

854:24-854:37
Thu Aug 20 17:07:51 2015 +0000
Author: Alex Light <1047769@85c56323-6fa9-3386-8a01-6480fb634889>
Parent: 243ac5f6_55ce7ca7
UUID: 4485f957_91e2bc92
Bytes: 4
Done

859:11-859:20
Thu Aug 20 01:17:36 2015 +0000
Author: Andreas Gampe <1041833@85c56323-6fa9-3386-8a01-6480fb634889>
UUID: 04806112_75a64b99
Bytes: 9
New line.

859:11-859:20
Thu Aug 20 17:07:51 2015 +0000
Author: Alex Light <1047769@85c56323-6fa9-3386-8a01-6480fb634889>
Parent: 04806112_75a64b99
UUID: c42ba915_b5e8202a
Bytes: 4
Done

860:7-860:29
Thu Aug 20 01:17:36 2015 +0000
Author: Andreas Gampe <1041833@85c56323-6fa9-3386-8a01-6480fb634889>
UUID: c4a9e95f_08e7f1d2
Bytes: 1
?

860:7-860:29
Thu Aug 20 17:07:51 2015 +0000
Author: Alex Light <1047769@85c56323-6fa9-3386-8a01-6480fb634889>
Parent: c4a9e95f_08e7f1d2
UUID: 248c8586_93887e2f
Bytes: 78
Removed. It originally made sense but I removed the thing it was referring to.

969:15-969:24
Thu Aug 20 01:17:36 2015 +0000
Author: Andreas Gampe <1041833@85c56323-6fa9-3386-8a01-6480fb634889>
UUID: a4fb1585_e56ee775
Bytes: 9
New line.

969:15-969:24
Thu Aug 20 17:07:51 2015 +0000
Author: Alex Light <1047769@85c56323-6fa9-3386-8a01-6480fb634889>
Parent: a4fb1585_e56ee775
UUID: c4700952_ad2f5d10
Bytes: 4
Done

970
Thu Aug 20 01:17:36 2015 +0000
Author: Andreas Gampe <1041833@85c56323-6fa9-3386-8a01-6480fb634889>
UUID: a4fb1585_c573eb5a
Bytes: 7
Period.

970
Thu Aug 20 17:07:51 2015 +0000
Author: Alex Light <1047769@85c56323-6fa9-3386-8a01-6480fb634889>
Parent: a4fb1585_c573eb5a
UUID: a42a3512_d4ab5cdf
Bytes: 4
Done

