Revision: e93519a3cabed9119b094c823d5659f681c34a2a
Patch-set: 2
File: dexdump/dexdump.cc

788:54-788:68
Sat Jul 09 03:37:28 2016 +0000
Author: Andreas Gampe <1041833@85c56323-6fa9-3386-8a01-6480fb634889>
UUID: 7a11e841_8b8aef2c
Bytes: 9
New line.

790:2-790:11
Sat Jul 09 03:37:28 2016 +0000
Author: Andreas Gampe <1041833@85c56323-6fa9-3386-8a01-6480fb634889>
UUID: 7a11e841_6b8f9b3e
Bytes: 19
Why not unique_ptr?

893:37-893:45
Sat Jul 09 03:37:28 2016 +0000
Author: Andreas Gampe <1041833@85c56323-6fa9-3386-8a01-6480fb634889>
UUID: 7a11e841_4b94d74e
Bytes: 15
Update comment?

945:2-945:8
Sat Jul 09 03:37:28 2016 +0000
Author: Andreas Gampe <1041833@85c56323-6fa9-3386-8a01-6480fb634889>
UUID: 7a11e841_2b91a35d
Bytes: 11
unique_ptr?

